<?xml version="1.0" encoding="UTF-8"?>

<!-- generated on 11/04/24 11:50:33 by Eclipse SUMO netconvert Version 1.8.0
<configuration xmlns:xsi="http://www.w3.org/2001/XMLSchema-instance" xsi:noNamespaceSchemaLocation="http://sumo.dlr.de/xsd/netconvertConfiguration.xsd">

    <input>
        <type-files value="C:\Programas\Simuladores\Sumo\data\typemap\osmNetconvert.typ.xml"/>
        <osm-files value="osm_bbox.osm.xml"/>
    </input>

    <output>
        <output-file value="osm.net.xml"/>
        <output.street-names value="true"/>
        <output.original-names value="true"/>
    </output>

    <projection>
        <proj.utm value="true"/>
    </projection>

    <processing>
        <geometry.remove value="true"/>
        <roundabouts.guess value="true"/>
    </processing>

    <tls_building>
        <tls.discard-simple value="true"/>
        <tls.join value="true"/>
        <tls.guess-signals value="true"/>
        <tls.default-type value="actuated"/>
    </tls_building>

    <ramp_guessing>
        <ramps.guess value="true"/>
    </ramp_guessing>

    <junctions>
        <junctions.join value="true"/>
        <junctions.corner-detail value="5"/>
    </junctions>

    <report>
        <verbose value="true"/>
        <aggregate-warnings value="5"/>
    </report>

</configuration>
-->

<net version="1.6" junctionCornerDetail="5" limitTurnSpeed="5.50" xmlns:xsi="http://www.w3.org/2001/XMLSchema-instance" xsi:noNamespaceSchemaLocation="http://sumo.dlr.de/xsd/net_file.xsd">

    <location netOffset="-789405.33,2094024.08" convBoundary="0.00,0.00,2248.84,1158.44" origBoundary="-48.252494,-18.918129,-48.231208,-18.907643" projParameter="+proj=utm +zone=22 +ellps=WGS84 +datum=WGS84 +units=m +no_defs"/>

    <type id="highway.bridleway" priority="1" numLanes="1" speed="2.78" allow="pedestrian" oneway="1" width="2.00"/>
    <type id="highway.bus_guideway" priority="1" numLanes="1" speed="27.78" allow="bus" oneway="1"/>
    <type id="highway.cycleway" priority="1" numLanes="1" speed="8.33" allow="bicycle" oneway="0" width="1.00"/>
    <type id="highway.footway" priority="1" numLanes="1" speed="2.78" allow="pedestrian" oneway="1" width="2.00"/>
    <type id="highway.ford" priority="1" numLanes="1" speed="2.78" allow="army" oneway="0"/>
    <type id="highway.living_street" priority="2" numLanes="1" speed="2.78" disallow="tram rail_urban rail rail_electric rail_fast ship" oneway="0"/>
    <type id="highway.motorway" priority="14" numLanes="2" speed="39.44" allow="private emergency authority army vip passenger hov taxi bus coach delivery truck trailer motorcycle evehicle custom1 custom2" oneway="1"/>
    <type id="highway.motorway_link" priority="9" numLanes="1" speed="22.22" allow="private emergency authority army vip passenger hov taxi bus coach delivery truck trailer motorcycle evehicle custom1 custom2" oneway="1"/>
    <type id="highway.path" priority="1" numLanes="1" speed="2.78" allow="pedestrian bicycle" oneway="0" width="2.00"/>
    <type id="highway.pedestrian" priority="1" numLanes="1" speed="2.78" allow="pedestrian" oneway="1" width="2.00"/>
    <type id="highway.primary" priority="12" numLanes="2" speed="27.78" disallow="tram rail_urban rail rail_electric rail_fast ship" oneway="0"/>
    <type id="highway.primary_link" priority="7" numLanes="1" speed="22.22" disallow="tram rail_urban rail rail_electric rail_fast ship" oneway="0"/>
    <type id="highway.raceway" priority="15" numLanes="2" speed="83.33" allow="vip" oneway="0"/>
    <type id="highway.residential" priority="3" numLanes="1" speed="13.89" disallow="tram rail_urban rail rail_electric rail_fast ship" oneway="0"/>
    <type id="highway.secondary" priority="11" numLanes="1" speed="27.78" disallow="tram rail_urban rail rail_electric rail_fast ship" oneway="0"/>
    <type id="highway.secondary_link" priority="6" numLanes="1" speed="22.22" disallow="tram rail_urban rail rail_electric rail_fast ship" oneway="0"/>
    <type id="highway.service" priority="1" numLanes="1" speed="5.56" allow="pedestrian delivery bicycle" oneway="0"/>
    <type id="highway.stairs" priority="1" numLanes="1" speed="1.39" allow="pedestrian" oneway="1" width="2.00"/>
    <type id="highway.step" priority="1" numLanes="1" speed="1.39" allow="pedestrian" oneway="1" width="2.00"/>
    <type id="highway.steps" priority="1" numLanes="1" speed="1.39" allow="pedestrian" oneway="1" width="2.00"/>
    <type id="highway.tertiary" priority="10" numLanes="1" speed="22.22" disallow="tram rail_urban rail rail_electric rail_fast ship" oneway="0"/>
    <type id="highway.tertiary_link" priority="5" numLanes="1" speed="22.22" disallow="tram rail_urban rail rail_electric rail_fast ship" oneway="0"/>
    <type id="highway.track" priority="1" numLanes="1" speed="5.56" allow="pedestrian motorcycle moped bicycle" oneway="0"/>
    <type id="highway.trunk" priority="13" numLanes="2" speed="27.78" disallow="pedestrian bicycle tram rail_urban rail rail_electric rail_fast ship" oneway="0"/>
    <type id="highway.trunk_link" priority="8" numLanes="1" speed="22.22" disallow="pedestrian bicycle tram rail_urban rail rail_electric rail_fast ship" oneway="0"/>
    <type id="highway.unclassified" priority="4" numLanes="1" speed="13.89" disallow="tram rail_urban rail rail_electric rail_fast ship" oneway="0"/>
    <type id="highway.unsurfaced" priority="1" numLanes="1" speed="8.33" disallow="tram rail_urban rail rail_electric rail_fast ship" oneway="0"/>
    <type id="railway.highspeed" priority="21" numLanes="1" speed="69.44" allow="rail_fast" oneway="1"/>
    <type id="railway.light_rail" priority="19" numLanes="1" speed="27.78" allow="rail_urban" oneway="1"/>
    <type id="railway.preserved" priority="16" numLanes="1" speed="27.78" allow="rail" oneway="1"/>
    <type id="railway.rail" priority="20" numLanes="1" speed="44.44" allow="rail" oneway="1"/>
    <type id="railway.subway" priority="18" numLanes="1" speed="27.78" allow="rail_urban" oneway="1"/>
    <type id="railway.tram" priority="17" numLanes="1" speed="13.89" allow="tram" oneway="1"/>

    <edge id=":1664525185_0" function="internal">
        <lane id=":1664525185_0_0" index="0" disallow="tram rail_urban rail rail_electric rail_fast ship" speed="3.65" length="4.67" shape="125.96,986.37 125.45,985.02 125.59,984.13 126.38,983.71 127.82,983.76"/>
    </edge>
    <edge id=":1665088810_0" function="internal">
        <lane id=":1665088810_0_0" index="0" allow="pedestrian delivery bicycle" speed="5.35" length="5.48" shape="706.44,1051.54 704.96,1051.88 703.92,1052.59 703.32,1053.67 703.14,1055.12"/>
    </edge>
    <edge id=":1665088810_1" function="internal">
        <lane id=":1665088810_1_0" index="0" allow="pedestrian delivery bicycle" speed="5.56" length="9.74" shape="706.44,1051.54 696.73,1052.23"/>
    </edge>
    <edge id=":1665088810_2" function="internal">
        <lane id=":1665088810_2_0" index="0" allow="pedestrian delivery bicycle" speed="3.65" length="4.67" shape="706.44,1051.54 705.17,1050.85 704.70,1050.10 705.02,1049.26 706.15,1048.35"/>
    </edge>
    <edge id=":1665088810_3" function="internal">
        <lane id=":1665088810_3_0" index="0" allow="pedestrian delivery bicycle" speed="4.98" length="5.07" shape="702.86,1045.45 703.10,1046.83 703.73,1047.78 704.74,1048.28 706.15,1048.35"/>
    </edge>
    <edge id=":1665088810_4" function="internal">
        <lane id=":1665088810_4_0" index="0" disallow="tram rail_urban rail rail_electric rail_fast ship" speed="13.89" length="9.67" shape="702.86,1045.45 703.14,1055.12"/>
        <lane id=":1665088810_4_1" index="1" disallow="tram rail_urban rail rail_electric rail_fast ship" speed="13.89" length="9.67" shape="699.66,1045.55 699.94,1055.21"/>
    </edge>
    <edge id=":1665088810_6" function="internal">
        <lane id=":1665088810_6_0" index="0" allow="pedestrian delivery bicycle" speed="6.21" length="8.02" shape="699.66,1045.55 699.55,1048.42 699.03,1050.48 698.09,1051.76 696.73,1052.23"/>
    </edge>
    <edge id=":1665088810_7" function="internal">
        <lane id=":1665088810_7_0" index="0" allow="pedestrian delivery bicycle" speed="5.56" length="9.60" shape="696.57,1049.04 706.15,1048.35"/>
    </edge>
    <edge id=":1665088810_8" function="internal">
        <lane id=":1665088810_8_0" index="0" allow="pedestrian delivery bicycle" speed="6.06" length="7.82" shape="696.57,1049.04 697.98,1049.36 699.01,1050.50 699.67,1052.45 699.94,1055.21"/>
    </edge>
    <edge id=":1665088810_9" function="internal">
        <lane id=":1665088810_9_0" index="0" allow="pedestrian delivery bicycle" speed="3.65" length="4.67" shape="696.57,1049.04 697.81,1049.78 698.25,1050.56 697.89,1051.37 696.73,1052.23"/>
    </edge>
    <edge id=":1665088816_0" function="internal">
        <lane id=":1665088816_0_0" index="0" disallow="tram rail_urban rail rail_electric rail_fast ship" speed="3.65" length="4.67" shape="576.41,745.04 576.84,743.67 577.50,743.06 578.38,743.23 579.48,744.16"/>
    </edge>
    <edge id=":1670992924_0" function="internal">
        <lane id=":1670992924_0_0" index="0" disallow="tram rail_urban rail rail_electric rail_fast ship" speed="9.03" length="8.40" shape="219.82,905.16 216.96,904.97 214.66,905.09 212.90,905.51 211.68,906.24"/>
    </edge>
    <edge id=":1670992924_1" function="internal">
        <lane id=":1670992924_1_0" index="0" disallow="tram rail_urban rail rail_electric rail_fast ship" speed="10.33" length="11.14" shape="220.17,901.98 216.60,901.79 213.64,902.04 211.27,902.75 209.49,903.91"/>
    </edge>
    <edge id=":1670992924_2" function="internal">
        <lane id=":1670992924_2_0" index="0" disallow="tram rail_urban rail rail_electric rail_fast ship" speed="16.22" length="10.46" shape="218.16,897.78 216.98,900.72 215.74,902.54 214.10,904.09 211.68,906.24"/>
        <lane id=":1670992924_2_1" index="1" disallow="tram rail_urban rail rail_electric rail_fast ship" speed="15.61" length="10.46" shape="215.39,895.99 214.31,898.73 213.20,900.44 211.71,901.90 209.49,903.91"/>
    </edge>
    <edge id=":2015703198_0" function="internal">
        <lane id=":2015703198_0_0" index="0" disallow="tram rail_urban rail rail_electric rail_fast ship" speed="13.89" length="11.53" shape="729.43,957.77 726.26,958.15 723.95,958.23 721.88,958.78 719.44,960.57"/>
        <lane id=":2015703198_0_1" index="1" disallow="tram rail_urban rail rail_electric rail_fast ship" speed="13.89" length="11.53" shape="728.78,954.64 725.10,955.13 722.45,955.34 720.08,956.10 717.25,958.23"/>
    </edge>
    <edge id=":2015703198_2" function="internal">
        <lane id=":2015703198_2_0" index="0" disallow="tram rail_urban rail rail_electric rail_fast ship" speed="11.11" length="11.55" shape="726.16,951.01 724.86,954.25 723.64,956.34 722.00,958.16 719.44,960.57"/>
        <lane id=":2015703198_2_1" index="1" disallow="tram rail_urban rail rail_electric rail_fast ship" speed="11.11" length="11.55" shape="723.46,949.09 722.25,952.17 721.15,954.18 719.65,955.94 717.25,958.23"/>
    </edge>
    <edge id=":2015703202_0" function="internal">
        <lane id=":2015703202_0_0" index="0" disallow="tram rail_urban rail rail_electric rail_fast ship" speed="13.89" length="13.10" shape="716.91,915.19 720.15,917.23 722.65,918.09 725.34,918.57 729.13,919.49"/>
    </edge>
    <edge id=":2015703202_1" function="internal">
        <lane id=":2015703202_1_0" index="0" disallow="tram rail_urban rail rail_electric rail_fast ship" speed="13.89" length="13.64" shape="716.91,915.19 720.06,917.76 722.17,919.65 724.48,921.15 728.21,922.55"/>
    </edge>
    <edge id=":2015703202_2" function="internal">
        <lane id=":2015703202_2_0" index="0" disallow="tram rail_urban rail rail_electric rail_fast ship" speed="11.11" length="13.92" shape="716.91,915.19 720.23,917.77 722.28,919.85 723.84,922.32 725.73,926.09"/>
        <lane id=":2015703202_2_1" index="1" disallow="tram rail_urban rail rail_electric rail_fast ship" speed="11.11" length="13.92" shape="715.01,917.77 718.14,920.24 720.03,922.26 721.47,924.66 723.24,928.28"/>
    </edge>
    <edge id=":2042691974_0" function="internal">
        <lane id=":2042691974_0_0" index="0" disallow="tram rail_urban rail rail_electric rail_fast ship" speed="6.08" length="7.54" shape="437.46,1117.17 435.97,1118.59 434.38,1119.21 432.67,1119.04 430.86,1118.08"/>
    </edge>
    <edge id=":2042691974_1" function="internal">
        <lane id=":2042691974_1_0" index="0" disallow="tram rail_urban rail rail_electric rail_fast ship" speed="3.91" length="2.51" shape="432.74,1115.49 433.35,1115.81 433.92,1115.87 434.45,1115.66 434.94,1115.19"/>
    </edge>
    <edge id=":2042693016_0" function="internal">
        <lane id=":2042693016_0_0" index="0" disallow="tram rail_urban rail rail_electric rail_fast ship" speed="3.65" length="4.67" shape="536.21,342.74 536.64,341.37 537.30,340.76 538.18,340.92 539.28,341.84"/>
    </edge>
    <edge id=":2042693159_0" function="internal">
        <lane id=":2042693159_0_0" index="0" disallow="tram rail_urban rail rail_electric rail_fast ship" speed="3.65" length="4.67" shape="195.83,230.40 196.28,229.03 196.94,228.43 197.82,228.61 198.91,229.55"/>
    </edge>
    <edge id=":2042693363_0" function="internal">
        <lane id=":2042693363_0_0" index="0" disallow="tram rail_urban rail rail_electric rail_fast ship" speed="3.65" length="4.67" shape="-1.53,84.96 -1.11,83.58 -0.46,82.97 0.42,83.12 1.53,84.04"/>
    </edge>
    <edge id=":2042693399_0" function="internal">
        <lane id=":2042693399_0_0" index="0" disallow="tram rail_urban rail rail_electric rail_fast ship" speed="3.65" length="4.67" shape="68.42,64.63 68.83,63.25 69.47,62.63 70.36,62.77 71.48,63.68"/>
    </edge>
    <edge id=":3034584185_0" function="internal">
        <lane id=":3034584185_0_0" index="0" disallow="tram rail_urban rail rail_electric rail_fast ship" speed="3.65" length="4.67" shape="587.05,1106.70 587.65,1108.01 587.57,1108.90 586.81,1109.37 585.37,1109.42"/>
    </edge>
    <edge id=":3122153472_0" function="internal">
        <lane id=":3122153472_0_0" index="0" disallow="tram rail_urban rail rail_electric rail_fast ship" speed="8.90" length="8.24" shape="215.17,867.83 216.06,868.58 217.66,869.21 219.94,869.72 222.93,870.13"/>
    </edge>
    <edge id=":3122153472_1" function="internal">
        <lane id=":3122153472_1_0" index="0" disallow="tram rail_urban rail rail_electric rail_fast ship" speed="9.53" length="9.51" shape="215.17,867.83 216.93,870.07 218.76,871.73 220.65,872.81 222.60,873.31"/>
    </edge>
    <edge id=":3122153472_2" function="internal">
        <lane id=":3122153472_2_0" index="0" disallow="tram rail_urban rail rail_electric rail_fast ship" speed="19.05" length="10.22" shape="215.17,867.83 217.00,870.36 218.24,872.15 219.10,874.09 219.80,877.09"/>
        <lane id=":3122153472_2_1" index="1" disallow="tram rail_urban rail rail_electric rail_fast ship" speed="18.53" length="10.22" shape="212.53,869.64 214.24,872.04 215.37,873.75 216.15,875.61 216.80,878.45"/>
    </edge>
    <edge id=":3371604906_0" function="internal">
        <lane id=":3371604906_0_0" index="0" disallow="tram rail_urban rail rail_electric rail_fast ship" speed="18.05" length="6.36" shape="686.95,909.26 687.25,907.45 687.03,906.15 686.78,904.85 686.96,903.00"/>
        <lane id=":3371604906_0_1" index="1" disallow="tram rail_urban rail rail_electric rail_fast ship" speed="18.05" length="6.36" shape="686.95,909.26 687.74,907.56 688.59,906.53 689.41,905.48 690.07,903.75"/>
    </edge>
    <edge id=":3371751120_0" function="internal">
        <lane id=":3371751120_0_0" index="0" disallow="tram rail_urban rail rail_electric rail_fast ship" speed="5.46" length="9.93" shape="505.46,1039.67 504.92,1036.49 503.81,1035.15 502.13,1035.63 499.88,1037.93"/>
    </edge>
    <edge id=":3371751120_1" function="internal">
        <lane id=":3371751120_1_0" index="0" disallow="tram rail_urban rail rail_electric rail_fast ship" speed="13.89" length="19.76" shape="505.46,1039.67 505.24,1035.18 505.09,1029.79 505.06,1024.41 505.23,1019.92"/>
    </edge>
    <edge id=":3371751120_2" function="internal">
        <lane id=":3371751120_2_0" index="0" disallow="tram rail_urban rail rail_electric rail_fast ship" speed="8.66" length="9.30" shape="505.46,1039.67 505.66,1033.51 506.70,1030.54"/>
    </edge>
    <edge id=":3371751120_3" function="internal">
        <lane id=":3371751120_3_0" index="0" disallow="tram rail_urban rail rail_electric rail_fast ship" speed="3.65" length="2.34" shape="505.46,1039.67 506.19,1038.42 506.96,1037.97"/>
    </edge>
    <edge id=":3371751120_20" function="internal">
        <lane id=":3371751120_20_0" index="0" disallow="tram rail_urban rail rail_electric rail_fast ship" speed="8.66" length="9.25" shape="506.70,1030.54 507.16,1029.21 509.96,1026.77 514.05,1026.20"/>
    </edge>
    <edge id=":3371751120_21" function="internal">
        <lane id=":3371751120_21_0" index="0" disallow="tram rail_urban rail rail_electric rail_fast ship" speed="3.65" length="2.34" shape="506.96,1037.97 507.78,1038.32 508.66,1039.47"/>
    </edge>
    <edge id=":3371751120_4" function="internal">
        <lane id=":3371751120_4_0" index="0" disallow="tram rail_urban rail rail_electric rail_fast ship" speed="7.32" length="12.94" shape="513.81,1029.39 511.31,1029.86 509.61,1031.69 508.73,1034.89 508.66,1039.47"/>
    </edge>
    <edge id=":3371751120_5" function="internal">
        <lane id=":3371751120_5_0" index="0" disallow="tram rail_urban rail rail_electric rail_fast ship" speed="11.60" length="16.96" shape="513.81,1029.39 510.39,1029.73 506.93,1031.27 503.43,1034.00 499.88,1037.93"/>
    </edge>
    <edge id=":3371751120_6" function="internal">
        <lane id=":3371751120_6_0" index="0" disallow="tram rail_urban rail rail_electric rail_fast ship" speed="8.10" length="14.58" shape="513.81,1029.39 509.81,1028.54 507.04,1026.68 505.51,1023.80 505.23,1019.92"/>
    </edge>
    <edge id=":3371751120_7" function="internal">
        <lane id=":3371751120_7_0" index="0" disallow="tram rail_urban rail rail_electric rail_fast ship" speed="3.65" length="4.67" shape="513.81,1029.39 512.68,1028.50 512.34,1027.67 512.80,1026.91 514.05,1026.20"/>
    </edge>
    <edge id=":3371751120_8" function="internal">
        <lane id=":3371751120_8_0" index="0" disallow="tram rail_urban rail rail_electric rail_fast ship" speed="6.63" length="9.42" shape="508.42,1020.16 508.61,1022.63 509.62,1024.46 511.43,1025.65 514.05,1026.20"/>
    </edge>
    <edge id=":3371751120_9" function="internal">
        <lane id=":3371751120_9_0" index="0" disallow="tram rail_urban rail rail_electric rail_fast ship" speed="13.89" length="19.32" shape="508.42,1020.16 508.25,1024.58 508.28,1029.81 508.43,1035.04 508.66,1039.47"/>
    </edge>
    <edge id=":3371751120_10" function="internal">
        <lane id=":3371751120_10_0" index="0" disallow="tram rail_urban rail rail_electric rail_fast ship" speed="13.89" length="6.17" shape="508.42,1020.16 507.36,1024.49 506.67,1026.05"/>
    </edge>
    <edge id=":3371751120_11" function="internal">
        <lane id=":3371751120_11_0" index="0" disallow="tram rail_urban rail rail_electric rail_fast ship" speed="3.65" length="2.34" shape="508.42,1020.16 507.53,1021.30 506.70,1021.64"/>
    </edge>
    <edge id=":3371751120_22" function="internal">
        <lane id=":3371751120_22_0" index="0" disallow="tram rail_urban rail rail_electric rail_fast ship" speed="13.89" length="13.71" shape="506.67,1026.05 505.17,1029.44 502.47,1034.20 499.88,1037.93"/>
    </edge>
    <edge id=":3371751120_23" function="internal">
        <lane id=":3371751120_23_0" index="0" disallow="tram rail_urban rail rail_electric rail_fast ship" speed="3.65" length="2.34" shape="506.70,1021.64 505.93,1021.18 505.23,1019.92"/>
    </edge>
    <edge id=":3371751120_12" function="internal">
        <lane id=":3371751120_12_0" index="0" allow="pedestrian delivery bicycle" speed="6.71" length="9.73" shape="499.90,1026.70 502.03,1026.42 503.62,1025.20 504.69,1023.03 505.23,1019.92"/>
    </edge>
    <edge id=":3371751120_13" function="internal">
        <lane id=":3371751120_13_0" index="0" allow="pedestrian delivery bicycle" speed="9.72" length="14.17" shape="499.90,1026.70 503.51,1026.74 506.98,1026.46 510.44,1026.18 514.05,1026.20"/>
    </edge>
    <edge id=":3371751120_14" function="internal">
        <lane id=":3371751120_14_0" index="0" allow="pedestrian delivery bicycle" speed="9.20" length="16.99" shape="499.90,1026.70 503.45,1027.74 506.09,1030.22 507.82,1034.13 508.66,1039.47"/>
    </edge>
    <edge id=":3371751120_15" function="internal">
        <lane id=":3371751120_15_0" index="0" allow="pedestrian delivery bicycle" speed="6.90" length="14.86" shape="499.90,1026.70 503.01,1027.65 504.04,1029.84 503.00,1033.27 499.88,1037.93"/>
    </edge>
    <edge id=":3371751120_16" function="internal">
        <lane id=":3371751120_16_0" index="0" disallow="tram rail_urban rail rail_electric rail_fast ship" speed="13.89" length="18.03" shape="497.37,1035.95 499.85,1032.49 502.32,1028.33 504.27,1023.98 505.23,1019.92"/>
    </edge>
    <edge id=":3371751120_17" function="internal">
        <lane id=":3371751120_17_0" index="0" disallow="tram rail_urban rail rail_electric rail_fast ship" speed="12.59" length="20.08" shape="497.37,1035.95 501.48,1031.44 505.63,1028.32 509.82,1026.57 514.05,1026.20"/>
    </edge>
    <edge id=":3371751120_18" function="internal">
        <lane id=":3371751120_18_0" index="0" disallow="tram rail_urban rail rail_electric rail_fast ship" speed="7.47" length="20.08" shape="497.37,1035.95 501.92,1031.29 505.31,1030.32 507.56,1033.05 508.66,1039.47"/>
    </edge>
    <edge id=":3371751120_19" function="internal">
        <lane id=":3371751120_19_0" index="0" disallow="tram rail_urban rail rail_electric rail_fast ship" speed="3.65" length="4.67" shape="497.37,1035.95 498.74,1035.50 499.62,1035.68 500.00,1036.49 499.88,1037.93"/>
    </edge>
    <edge id=":338654962_0" function="internal">
        <lane id=":338654962_0_0" index="0" disallow="tram rail_urban rail rail_electric rail_fast ship" speed="13.80" length="9.87" shape="678.78,960.66 676.49,959.07 674.56,958.66 672.41,958.69 669.46,958.42"/>
    </edge>
    <edge id=":338654962_1" function="internal">
        <lane id=":338654962_1_0" index="0" disallow="tram rail_urban rail rail_electric rail_fast ship" speed="13.89" length="10.49" shape="678.78,960.66 676.53,958.49 674.89,957.03 673.01,956.03 670.06,955.27"/>
    </edge>
    <edge id=":338654962_2" function="internal">
        <lane id=":338654962_2_0" index="0" disallow="tram rail_urban rail rail_electric rail_fast ship" speed="11.11" length="10.63" shape="678.78,960.66 676.50,958.35 675.19,956.55 674.06,954.60 672.30,951.84"/>
        <lane id=":338654962_2_1" index="1" disallow="tram rail_urban rail rail_electric rail_fast ship" speed="11.11" length="10.63" shape="680.94,958.30 678.82,956.14 677.61,954.45 676.57,952.61 674.94,950.03"/>
    </edge>
    <edge id=":338661981_0" function="internal">
        <lane id=":338661981_0_0" index="0" disallow="tram rail_urban rail rail_electric rail_fast ship" speed="13.89" length="15.32" shape="506.77,1069.60 506.39,1054.28"/>
    </edge>
    <edge id=":338661981_1" function="internal">
        <lane id=":338661981_1_0" index="0" disallow="tram rail_urban rail rail_electric rail_fast ship" speed="7.39" length="6.49" shape="506.77,1069.60 507.43,1064.48 508.22,1063.41"/>
    </edge>
    <edge id=":338661981_2" function="internal">
        <lane id=":338661981_2_0" index="0" disallow="tram rail_urban rail rail_electric rail_fast ship" speed="3.65" length="2.34" shape="506.77,1069.60 507.57,1068.40 508.37,1067.99"/>
    </edge>
    <edge id=":338661981_9" function="internal">
        <lane id=":338661981_9_0" index="0" disallow="tram rail_urban rail rail_electric rail_fast ship" speed="7.39" length="10.57" shape="508.22,1063.41 509.43,1061.77 512.78,1061.48 517.49,1063.61"/>
    </edge>
    <edge id=":338661981_10" function="internal">
        <lane id=":338661981_10_0" index="0" disallow="tram rail_urban rail rail_electric rail_fast ship" speed="3.65" length="2.34" shape="508.37,1067.99 509.17,1068.39 509.97,1069.59"/>
    </edge>
    <edge id=":338661981_3" function="internal">
        <lane id=":338661981_3_0" index="0" disallow="tram rail_urban rail rail_electric rail_fast ship" speed="5.63" length="9.28" shape="515.80,1066.33 513.24,1065.17 511.42,1065.33 510.33,1066.80 509.97,1069.59"/>
    </edge>
    <edge id=":338661981_4" function="internal">
        <lane id=":338661981_4_0" index="0" disallow="tram rail_urban rail rail_electric rail_fast ship" speed="11.42" length="15.84" shape="515.80,1066.33 511.83,1063.48 508.94,1060.53 507.13,1057.46 506.39,1054.28"/>
    </edge>
    <edge id=":338661981_5" function="internal">
        <lane id=":338661981_5_0" index="0" disallow="tram rail_urban rail rail_electric rail_fast ship" speed="3.65" length="4.67" shape="515.80,1066.33 515.20,1065.02 515.28,1064.13 516.05,1063.66 517.49,1063.61"/>
    </edge>
    <edge id=":338661981_6" function="internal">
        <lane id=":338661981_6_0" index="0" disallow="tram rail_urban rail rail_electric rail_fast ship" speed="10.31" length="12.80" shape="509.58,1054.08 510.19,1056.48 511.71,1058.87 514.14,1061.25 517.49,1063.61"/>
    </edge>
    <edge id=":338661981_7" function="internal">
        <lane id=":338661981_7_0" index="0" disallow="tram rail_urban rail rail_electric rail_fast ship" speed="13.89" length="15.51" shape="509.58,1054.08 509.97,1069.59"/>
    </edge>
    <edge id=":338661981_8" function="internal">
        <lane id=":338661981_8_0" index="0" disallow="tram rail_urban rail rail_electric rail_fast ship" speed="3.65" length="2.34" shape="509.58,1054.08 508.86,1055.33 508.08,1055.78"/>
    </edge>
    <edge id=":338661981_11" function="internal">
        <lane id=":338661981_11_0" index="0" disallow="tram rail_urban rail rail_electric rail_fast ship" speed="3.65" length="2.34" shape="508.08,1055.78 507.26,1055.43 506.39,1054.28"/>
    </edge>
    <edge id=":338661983_0" function="internal">
        <lane id=":338661983_0_0" index="0" disallow="tram rail_urban rail rail_electric rail_fast ship" speed="3.65" length="4.67" shape="494.22,1159.59 492.80,1159.85 491.96,1159.55 491.69,1158.70 492.00,1157.29"/>
    </edge>
    <edge id=":338686047_0" function="internal">
        <lane id=":338686047_0_0" index="0" disallow="tram rail_urban rail rail_electric rail_fast ship" speed="13.89" length="0.88" shape="287.03,1014.54 287.18,1014.33 287.31,1014.21 287.47,1014.11 287.71,1014.01"/>
    </edge>
    <edge id=":338954008_0" function="internal">
        <lane id=":338954008_0_0" index="0" disallow="tram rail_urban rail rail_electric rail_fast ship" speed="6.67" length="9.22" shape="687.02,1039.63 686.61,1037.20 685.50,1035.44 683.67,1034.36 681.14,1033.96"/>
    </edge>
    <edge id=":338954008_1" function="internal">
        <lane id=":338954008_1_0" index="0" disallow="tram rail_urban rail rail_electric rail_fast ship" speed="13.89" length="14.37" shape="687.02,1039.63 686.83,1025.24"/>
        <lane id=":338954008_1_1" index="1" disallow="tram rail_urban rail rail_electric rail_fast ship" speed="13.89" length="14.37" shape="690.22,1039.57 690.03,1025.22"/>
    </edge>
    <edge id=":338954008_3" function="internal">
        <lane id=":338954008_3_0" index="0" disallow="tram rail_urban rail rail_electric rail_fast ship" speed="6.44" length="9.03" shape="681.22,1030.76 683.69,1030.46 685.45,1029.45 686.49,1027.71 686.83,1025.24"/>
    </edge>
    <edge id=":338954008_4" function="internal">
        <lane id=":338954008_4_0" index="0" disallow="tram rail_urban rail rail_electric rail_fast ship" speed="3.65" length="4.67" shape="681.22,1030.76 682.40,1031.59 682.78,1032.40 682.36,1033.19 681.14,1033.96"/>
    </edge>
    <edge id=":338955111_0" function="internal">
        <lane id=":338955111_0_0" index="0" disallow="tram rail_urban rail rail_electric rail_fast ship" speed="11.11" length="14.97" shape="299.78,836.44 284.98,834.14"/>
    </edge>
    <edge id=":338955111_1" function="internal">
        <lane id=":338955111_1_0" index="0" disallow="tram rail_urban rail rail_electric rail_fast ship" speed="9.92" length="15.24" shape="299.78,836.44 296.54,835.35 293.86,833.21 291.74,830.00 290.18,825.73"/>
    </edge>
    <edge id=":338955111_2" function="internal">
        <lane id=":338955111_2_0" index="0" disallow="tram rail_urban rail rail_electric rail_fast ship" speed="3.65" length="4.67" shape="299.78,836.44 298.71,835.46 298.44,834.61 298.96,833.88 300.27,833.28"/>
    </edge>
    <edge id=":338955111_3" function="internal">
        <lane id=":338955111_3_0" index="0" disallow="tram rail_urban rail rail_electric rail_fast ship" speed="8.69" length="11.54" shape="293.27,824.90 294.47,828.27 296.03,830.79 297.97,832.46 300.27,833.28"/>
    </edge>
    <edge id=":338955111_4" function="internal">
        <lane id=":338955111_4_0" index="0" disallow="tram rail_urban rail rail_electric rail_fast ship" speed="7.47" length="16.09" shape="293.27,824.90 293.85,829.59 292.66,832.69 289.70,834.21 284.98,834.14"/>
    </edge>
    <edge id=":338955111_5" function="internal">
        <lane id=":338955111_5_0" index="0" disallow="tram rail_urban rail rail_electric rail_fast ship" speed="3.65" length="4.67" shape="293.27,824.90 292.80,826.27 292.14,826.86 291.26,826.68 290.18,825.73"/>
    </edge>
    <edge id=":338955111_6" function="internal">
        <lane id=":338955111_6_0" index="0" disallow="tram rail_urban rail rail_electric rail_fast ship" speed="5.80" length="9.15" shape="285.46,830.98 288.15,831.02 289.83,830.16 290.51,828.39 290.18,825.73"/>
    </edge>
    <edge id=":338955111_7" function="internal">
        <lane id=":338955111_7_0" index="0" disallow="tram rail_urban rail rail_electric rail_fast ship" speed="11.11" length="14.99" shape="285.46,830.98 300.27,833.28"/>
    </edge>