<?xml version="1.0" encoding="UTF-8"?>

<!-- generated on 11/04/24 11:50:33 by Eclipse SUMO polyconvert Version 1.8.0
<configuration xmlns:xsi="http://www.w3.org/2001/XMLSchema-instance" xsi:noNamespaceSchemaLocation="http://sumo.dlr.de/xsd/polyconvertConfiguration.xsd">

    <input>
        <net-file value="osm.net.xml"/>
        <osm-files value="osm_bbox.osm.xml"/>
        <osm.keep-full-type value="true"/>
        <type-file value="C:\Programas\Simuladores\Sumo\data\typemap\osmPolyconvert.typ.xml"/>
    </input>

    <output>
        <output-file value="osm.poly.xml"/>
    </output>

    <processing>
        <poi-layer-offset value="5"/>
    </processing>

    <report>
        <verbose value="true"/>
    </report>

</configuration>
-->

<additional xmlns:xsi="http://www.w3.org/2001/XMLSchema-instance" xsi:noNamespaceSchemaLocation="http://sumo.dlr.de/xsd/additional_file.xsd">
    <location netOffset="-789405.33,2094024.08" convBoundary="-686.28,0.00,3021.11,1636.47" origBoundary="-48.259081,-18.918129,-48.223914,-18.903143" projParameter="+proj=utm +zone=22 +ellps=WGS84 +datum=WGS84 +units=m +no_defs"/>

    <poly id="154568292" type="leisure.pitch" color="207,245,201" fill="1" layer="-2.00" shape="783.518805,1111.997108 907.796573,1113.138444 908.570918,1031.662048 784.293692,1030.520790 783.518805,1111.997108"/>
    <poly id="154568292#1" type="sport.soccer" color="79,230,125" fill="1" layer="-2.00" shape="783.518805,1111.997108 907.796573,1113.138444 908.570918,1031.662048 784.293692,1030.520790 783.518805,1111.997108"/>
    <poly id="220749267" type="leisure.sports_centre" color="207,245,201" fill="1" layer="-2.00" shape="779.601629,1122.448919 780.416725,1030.703098 912.094870,1031.828626 911.290961,1123.574375 779.601629,1122.448919"/>
    <poly id="300946872" type="amenity.police" color="237,199,199" fill="1" layer="-1.00" shape="665.555901,757.759890 696.165973,872.322895 709.634829,894.999104 722.111335,905.416868 736.611110,913.066927 750.919305,917.219462 779.118636,921.088910 835.531665,901.355142 856.842703,890.111355 880.933627,866.483781 887.952812,852.815358 902.111920,834.571287 915.194159,829.747843 964.142784,764.767472 955.133055,744.780141 910.802152,757.723636 904.851231,737.821495 899.189397,718.878590 943.486339,705.791632 937.523804,682.444558 911.891917,696.480979 829.816409,710.677826 786.667819,717.631788 774.048083,739.939377 665.555901,757.759890"/>
    <poly id="300946872#1" type="landuse.military" color="153,153,92" fill="1" layer="-3.00" shape="665.555901,757.759890 696.165973,872.322895 709.634829,894.999104 722.111335,905.416868 736.611110,913.066927 750.919305,917.219462 779.118636,921.088910 835.531665,901.355142 856.842703,890.111355 880.933627,866.483781 887.952812,852.815358 902.111920,834.571287 915.194159,829.747843 964.142784,764.767472 955.133055,744.780141 910.802152,757.723636 904.851231,737.821495 899.189397,718.878590 943.486339,705.791632 937.523804,682.444558 911.891917,696.480979 829.816409,710.677826 786.667819,717.631788 774.048083,739.939377 665.555901,757.759890"/>
    <poly id="399468540" type="leisure.pitch" color="207,245,201" fill="1" layer="-2.00" shape="706.016702,839.424124 806.938417,808.007513 828.025194,874.996882 727.113657,906.413397 706.016702,839.424124"/>
    <poly id="399468540#1" type="sport.soccer" color="79,230,125" fill="1" layer="-2.00" shape="706.016702,839.424124 806.938417,808.007513 828.025194,874.996882 727.113657,906.413397 706.016702,839.424124"/>
    <poly id="738037775" type="building.retail" color="255,230,230" fill="1" layer="-1.00" shape="338.106426,968.936442 349.504504,930.419732 417.350849,938.734765 415.696441,942.172404 428.584766,944.519502 430.243158,940.660854 499.348970,947.250046 495.241284,986.085346 338.106426,968.936442"/>
    <poly id="82103272" type="landuse.recreation_ground" color="194,194,130" fill="1" layer="-3.00" shape="1798.838863,1636.471372 1837.995051,1614.778093 1939.024989,1545.590375 2059.082526,1460.761524 2301.511594,1304.402245 2777.537921,993.284344 2812.025667,968.515858 2844.708604,941.615482 2904.241234,883.619061 2924.120724,860.497726 2941.630210,833.492078 2971.104206,780.875008 2992.332781,735.599045 3007.763378,687.689032 3021.088921,641.351884 3021.105416,602.823227 2974.379922,586.099020 2926.667888,575.693441 2839.019234,549.165559 2827.196201,548.210259 2817.591467,548.870691 2809.121326,549.945330 2786.625724,554.829417 2765.530300,560.256452 2701.809198,579.734610 2693.007168,583.173958 2647.088655,592.978513 2484.344598,632.365695 2158.376036,716.227669 2104.023841,729.464089 2049.960581,735.572879 1968.254925,718.862396 1908.816958,679.315342 1878.959267,630.808523 1865.986600,600.858266 1860.371269,584.950057 1855.808958,566.267029 1852.699647,501.666584 1884.562620,385.350957 1887.966123,358.977177 1881.403921,339.826975 1867.383665,323.762355 1852.586001,319.319271 1840.106824,318.185327 1804.685415,321.675413 1781.291613,328.433396 1759.256421,338.471218 1439.379487,515.000564 1099.520801,700.453828 1074.864378,714.165086 1027.958786,745.870164 1008.581051,763.431459 992.287944,779.360497 968.994708,804.770372 946.995967,832.741079 909.703137,886.628135 887.231453,909.299973 873.270653,920.661768 851.165902,941.854512 839.568022,948.571159 815.658007,947.980319 784.945944,956.058461 756.110086,960.052914 730.454616,966.523415 718.595020,978.096020 710.873684,998.809533 710.491163,1112.914102 712.064633,1137.426311 844.761198,1140.940377 977.608285,1141.249746 984.367836,1133.910632 992.012777,1123.854775 1001.971586,1106.008516 1027.311114,1081.308921 1065.392861,1075.929074 1122.460204,1092.009119 1146.920523,1097.442981 1196.842622,1113.025102 1228.069405,1125.741953 1319.295457,1171.441172 1421.128382,1231.308679 1707.136349,1435.816665 1746.788923,1520.704634 1798.838863,1636.471372"/>
    <poly id="82103272#1" type="leisure.park" color="207,245,201" fill="1" layer="-2.00" shape="1798.838863,1636.471372 1837.995051,1614.778093 1939.024989,1545.590375 2059.082526,1460.761524 2301.511594,1304.402245 2777.537921,993.284344 2812.025667,968.515858 2844.708604,941.615482 2904.241234,883.619061 2924.120724,860.497726 2941.630210,833.492078 2971.104206,780.875008 2992.332781,735.599045 3007.763378,687.689032 3021.088921,641.351884 3021.105416,602.823227 2974.379922,586.099020 2926.667888,575.693441 2839.019234,549.165559 2827.196201,548.210259 2817.591467,548.870691 2809.121326,549.945330 2786.625724,554.829417 2765.530300,560.256452 2701.809198,579.734610 2693.007168,583.173958 2647.088655,592.978513 2484.344598,632.365695 2158.376036,716.227669 2104.023841,729.464089 2049.960581,735.572879 1968.254925,718.862396 1908.816958,679.315342 1878.959267,630.808523 1865.986600,600.858266 1860.371269,584.950057 1855.808958,566.267029 1852.699647,501.666584 1884.562620,385.350957 1887.966123,358.977177 1881.403921,339.826975 1867.383665,323.762355 1852.586001,319.319271 1840.106824,318.185327 1804.685415,321.675413 1781.291613,328.433396 1759.256421,338.471218 1439.379487,515.000564 1099.520801,700.453828 1074.864378,714.165086 1027.958786,745.870164 1008.581051,763.431459 992.287944,779.360497 968.994708,804.770372 946.995967,832.741079 909.703137,886.628135 887.231453,909.299973 873.270653,920.661768 851.165902,941.854512 839.568022,948.571159 815.658007,947.980319 784.945944,956.058461 756.110086,960.052914 730.454616,966.523415 718.595020,978.096020 710.873684,998.809533 710.491163,1112.914102 712.064633,1137.426311 844.761198,1140.940377 977.608285,1141.249746 984.367836,1133.910632 992.012777,1123.854775 1001.971586,1106.008516 1027.311114,1081.308921 1065.392861,1075.929074 1122.460204,1092.009119 1146.920523,1097.442981 1196.842622,1113.025102 1228.069405,1125.741953 1319.295457,1171.441172 1421.128382,1231.308679 1707.136349,1435.816665 1746.788923,1520.704634 1798.838863,1636.471372"/>
    <poi id="1055656802" type="amenity.fuel" color="237,199,199" layer="4.00" x="273.33" y="870.57"/>
    <poi id="4410812713" type="amenity.bar" color="237,199,199" layer="4.00" x="406.04" y="875.84"/>
</additional>
