<?xml version="1.0" encoding="UTF-8"?>

<!-- generated on 11/04/24 11:50:33 by Eclipse SUMO duarouter Version 1.8.0
<configuration xmlns:xsi="http://www.w3.org/2001/XMLSchema-instance" xsi:noNamespaceSchemaLocation="http://sumo.dlr.de/xsd/duarouterConfiguration.xsd">

    <input>
        <net-file value="C:\Users\Gabriel%20Machado\2024-11-04-11-50-31\osm.net.xml"/>
        <route-files value="C:\Users\Gabriel%20Machado\2024-11-04-11-50-31\osm.passenger.trips.xml"/>
    </input>

    <output>
        <output-file value="C:\Users\Gabriel%20Machado\2024-11-04-11-50-31\osm.passenger.trips.xml.tmp"/>
        <write-trips value="true"/>
    </output>

    <time>
        <begin value="0"/>
        <end value="3600"/>
    </time>

    <report>
        <no-warnings value="true"/>
        <ignore-errors value="true"/>
        <no-step-log value="true"/>
    </report>

</configuration>
-->

<routes xmlns:xsi="http://www.w3.org/2001/XMLSchema-instance" xsi:noNamespaceSchemaLocation="http://sumo.dlr.de/xsd/routes_file.xsd">
    <vType id="veh_passenger" vClass="passenger"/>
    <trip id="veh0" type="veh_passenger" depart="0.00" departLane="best" from="153882369#1" to="-444901317"/>
    <trip id="veh1" type="veh_passenger" depart="12.91" departLane="best" departSpeed="max" from="444901317" to="220749345#0"/>
    <trip id="veh2" type="veh_passenger" depart="25.83" departLane="best" departSpeed="max" from="659117855" to="-261422558"/>
    <trip id="veh3" type="veh_passenger" depart="38.74" departLane="best" departSpeed="max" from="647043774#0" to="-1156706588#1"/>
    <trip id="veh5" type="veh_passenger" depart="64.57" departLane="best" departSpeed="max" from="-354366969#1" to="-261422558"/>
    <trip id="veh6" type="veh_passenger" depart="77.48" departLane="best" departSpeed="max" from="659117855" to="220749344#3"/>
    <trip id="veh7" type="veh_passenger" depart="90.39" departLane="best" departSpeed="max" from="647043774#0" to="303101574"/>
    <trip id="veh8" type="veh_passenger" depart="103.31" departLane="best" departSpeed="max" from="299472279" to="876167978"/>
    <trip id="veh9" type="veh_passenger" depart="116.22" departLane="best" departSpeed="max" from="647043774#0" to="220749344#4"/>
    <trip id="veh10" type="veh_passenger" depart="129.13" departLane="best" departSpeed="max" from="659117855" to="220749343#0"/>
    <trip id="veh11" type="veh_passenger" depart="142.05" departLane="best" from="354366969#0" to="-153814101"/>
    <trip id="veh12" type="veh_passenger" depart="154.96" departLane="best" departSpeed="max" from="153814101" to="-616971271#3"/>
    <trip id="veh13" type="veh_passenger" depart="167.87" departLane="best" departSpeed="max" from="-354366969#1" to="-616971271#3"/>
    <trip id="veh14" type="veh_passenger" depart="180.79" departLane="best" from="299472281#1" to="1156706588#2"/>
    <trip id="veh15" type="veh_passenger" depart="193.70" departLane="best" from="220749344#6" to="-444901317"/>
    <trip id="veh16" type="veh_passenger" depart="206.61" departLane="best" from="153882369#1" to="665897587"/>
    <trip id="veh17" type="veh_passenger" depart="219.52" departLane="best" departSpeed="max" from="665897597#0" to="220749344#6"/>
    <trip id="veh18" type="veh_passenger" depart="232.44" departLane="best" departSpeed="max" from="299472281#0" to="220749345#1"/>
    <trip id="veh19" type="veh_passenger" depart="245.35" departLane="best" departSpeed="max" from="647043774#0" to="307152128#1"/>
    <trip id="veh20" type="veh_passenger" depart="258.26" departLane="best" departSpeed="max" from="153814101" to="-1156706588#5"/>
    <trip id="veh21" type="veh_passenger" depart="271.18" departLane="best" from="220749344#1" to="-616971271#3"/>
    <trip id="veh22" type="veh_passenger" depart="284.09" departLane="best" departSpeed="max" from="659117855" to="-647043774#1"/>
    <trip id="veh23" type="veh_passenger" depart="297.00" departLane="best" from="303101574" to="153882369#1"/>
    <trip id="veh24" type="veh_passenger" depart="309.92" departLane="best" from="153882369#1" to="-444901317"/>
    <trip id="veh25" type="veh_passenger" depart="322.83" departLane="best" departSpeed="max" from="299472281#0" to="-616971271#3"/>
    <trip id="veh26" type="veh_passenger" depart="335.74" departLane="best" departSpeed="max" from="299472281#0" to="665897541#1"/>
    <trip id="veh27" type="veh_passenger" depart="348.66" departLane="best" from="220749344#8" to="-444901317"/>
    <trip id="veh28" type="veh_passenger" depart="361.57" departLane="best" from="665897597#1" to="220749342#1"/>
    <trip id="veh29" type="veh_passenger" depart="374.48" departLane="best" departSpeed="max" from="-354366969#1" to="-153814101"/>
    <trip id="veh30" type="veh_passenger" depart="387.40" departLane="best" departSpeed="max" from="-354366969#1" to="220749344#5"/>
    <trip id="veh31" type="veh_passenger" depart="400.31" departLane="best" departSpeed="max" from="616971271#0" to="220749341"/>
    <trip id="veh32" type="veh_passenger" depart="413.22" departLane="best" departSpeed="max" from="-30649101" to="1156706588#5"/>
    <trip id="veh33" type="veh_passenger" depart="426.14" departLane="best" from="665897597#1" to="220749342#1"/>
    <trip id="veh34" type="veh_passenger" depart="439.05" departLane="best" departSpeed="max" from="665897597#0" to="399928440"/>
    <trip id="veh35" type="veh_passenger" depart="451.96" departLane="best" from="-1156706588#1" to="299472991"/>
    <trip id="veh36" type="veh_passenger" depart="464.88" departLane="best" from="307152128#2" to="220749342#1"/>
    <trip id="veh37" type="veh_passenger" depart="477.79" departLane="best" departSpeed="max" from="-354366969#1" to="220749341"/>
    <trip id="veh38" type="veh_passenger" depart="490.70" departLane="best" departSpeed="max" from="261422558" to="665897591#1"/>
    <trip id="veh39" type="veh_passenger" depart="503.62" departLane="best" departSpeed="max" from="659117855" to="-616971271#3"/>
    <trip id="veh40" type="veh_passenger" depart="516.53" departLane="best" departSpeed="max" from="261422562" to="-299472279"/>
    <trip id="veh41" type="veh_passenger" depart="529.44" departLane="best" departSpeed="max" from="659117855" to="481239862"/>
    <trip id="veh42" type="veh_passenger" depart="542.36" departLane="best" departSpeed="max" from="299472281#0" to="-261422562"/>
    <trip id="veh43" type="veh_passenger" depart="555.27" departLane="best" departSpeed="max" from="616971271#0" to="220749342#1"/>
    <trip id="veh44" type="veh_passenger" depart="568.18" departLane="best" from="-1156706588#0" to="-647043774#1"/>
    <trip id="veh45" type="veh_passenger" depart="581.10" departLane="best" from="-1156706588#3" to="665897541#1"/>
    <trip id="veh46" type="veh_passenger" depart="594.01" departLane="best" departSpeed="max" from="659117855" to="354366969#1"/>
    <trip id="veh47" type="veh_passenger" depart="606.92" departLane="best" from="220749343#0" to="-153814101"/>
    <trip id="veh48" type="veh_passenger" depart="619.84" departLane="best" departSpeed="max" from="659117855" to="665897591#0"/>
    <trip id="veh49" type="veh_passenger" depart="632.75" departLane="best" departSpeed="max" from="261422562" to="220749342#1"/>
    <trip id="veh50" type="veh_passenger" depart="645.66" departLane="best" from="220749345#1" to="-444901317"/>
    <trip id="veh51" type="veh_passenger" depart="658.57" departLane="best" from="1156706588#2" to="-647043774#1"/>
    <trip id="veh52" type="veh_passenger" depart="671.49" departLane="best" from="665897597#1" to="220749344#7"/>
    <trip id="veh53" type="veh_passenger" depart="684.40" departLane="best" departSpeed="max" from="261422558" to="220749342#1"/>
    <trip id="veh54" type="veh_passenger" depart="697.31" departLane="best" departSpeed="max" from="-354366969#1" to="-444901317"/>
    <trip id="veh55" type="veh_passenger" depart="710.23" departLane="best" departSpeed="max" from="153814101" to="-444901317"/>
    <trip id="veh56" type="veh_passenger" depart="723.14" departLane="best" departSpeed="max" from="-30649101" to="220749344#5"/>
    <trip id="veh57" type="veh_passenger" depart="736.05" departLane="best" departSpeed="max" from="659117855" to="-153814101"/>
    <trip id="veh58" type="veh_passenger" depart="748.97" departLane="best" departSpeed="max" from="153814101" to="220749344#8"/>
    <trip id="veh59" type="veh_passenger" depart="761.88" departLane="best" from="1156706588#4" to="-261422562"/>
    <trip id="veh60" type="veh_passenger" depart="774.79" departLane="best" from="665897587" to="220749343#0"/>
    <trip id="veh61" type="veh_passenger" depart="787.71" departLane="best" departSpeed="max" from="261422562" to="307152128#1"/>
    <trip id="veh62" type="veh_passenger" depart="800.62" departLane="best" departSpeed="max" from="647043774#0" to="-299472279"/>
    <trip id="veh63" type="veh_passenger" depart="813.53" departLane="best" departSpeed="max" from="-354366969#1" to="220749341"/>
    <trip id="veh64" type="veh_passenger" depart="826.45" departLane="best" from="220749345#1" to="220749341"/>
    <trip id="veh65" type="veh_passenger" depart="839.36" departLane="best" departSpeed="max" from="444901317" to="220749345#0"/>
    <trip id="veh66" type="veh_passenger" depart="852.27" departLane="best" departSpeed="max" from="665897597#0" to="-261422558"/>
    <trip id="veh67" type="veh_passenger" depart="865.19" departLane="best" departSpeed="max" from="659117855" to="-481239862"/>
    <trip id="veh68" type="veh_passenger" depart="878.10" departLane="best" from="1156706588#0" to="220749341"/>
    <trip id="veh69" type="veh_passenger" depart="891.01" departLane="best" from="220749345#1" to="-616971271#3"/>
    <trip id="veh70" type="veh_passenger" depart="903.93" departLane="best" departSpeed="max" from="261422558" to="399928440"/>
    <trip id="veh71" type="veh_passenger" depart="916.84" departLane="best" departSpeed="max" from="299472281#0" to="-153814101"/>
    <trip id="veh72" type="veh_passenger" depart="929.75" departLane="best" departSpeed="max" from="659117855" to="-299472279"/>
    <trip id="veh73" type="veh_passenger" depart="942.67" departLane="best" from="220749344#8" to="-153814101"/>
    <trip id="veh74" type="veh_passenger" depart="955.58" departLane="best" from="153882369#1" to="307152128#1"/>
    <trip id="veh75" type="veh_passenger" depart="968.49" departLane="best" departSpeed="max" from="261422558" to="220749341"/>
    <trip id="veh76" type="veh_passenger" depart="981.41" departLane="best" departSpeed="max" from="665897597#0" to="876167978"/>
    <trip id="veh77" type="veh_passenger" depart="994.32" departLane="best" departSpeed="max" from="-876167978" to="-647043774#1"/>
    <trip id="veh78" type="veh_passenger" depart="1007.23" departLane="best" departSpeed="max" from="665897597#0" to="220749343#0"/>
    <trip id="veh79" type="veh_passenger" depart="1020.15" departLane="best" departSpeed="max" from="299472279" to="30649101"/>
    <trip id="veh80" type="veh_passenger" depart="1033.06" departLane="best" departSpeed="max" from="-30649101" to="220749344#1"/>
    <trip id="veh81" type="veh_passenger" depart="1045.97" departLane="best" departSpeed="max" from="261422562" to="354366969#1"/>
    <trip id="veh82" type="veh_passenger" depart="1058.88" departLane="best" departSpeed="max" from="-30649101" to="-299472279"/>
    <trip id="veh83" type="veh_passenger" depart="1071.80" departLane="best" departSpeed="max" from="153814101" to="-261422562"/>
    <trip id="veh84" type="veh_passenger" depart="1084.71" departLane="best" departSpeed="max" from="659117855" to="-444901317"/>
    <trip id="veh85" type="veh_passenger" depart="1097.62" departLane="best" from="1156706588#2" to="299472281#2"/>
    <trip id="veh86" type="veh_passenger" depart="1110.54" departLane="best" departSpeed="max" from="153814101" to="153882369#1"/>
    <trip id="veh87" type="veh_passenger" depart="1123.45" departLane="best" from="307152128#1" to="-647043774#1"/>
    <trip id="veh88" type="veh_passenger" depart="1136.36" departLane="best" from="220749344#1" to="30649101"/>
    <trip id="veh89" type="veh_passenger" depart="1149.28" departLane="best" departSpeed="max" from="-30649101" to="220749341"/>
    <trip id="veh90" type="veh_passenger" depart="1162.19" departLane="best" from="665897597#1" to="876167978"/>
    <trip id="veh91" type="veh_passenger" depart="1175.10" departLane="best" from="153882369#1" to="665897587"/>
    <trip id="veh92" type="veh_passenger" depart="1188.02" departLane="best" departSpeed="max" from="659117855" to="659117855"/>
    <trip id="veh94" type="veh_passenger" depart="1213.84" departLane="best" departSpeed="max" from="299472281#0" to="876167978"/>
    <trip id="veh95" type="veh_passenger" depart="1226.76" departLane="best" from="-665897587" to="-261422562"/>
    <trip id="veh96" type="veh_passenger" depart="1239.67" departLane="best" from="402968144" to="-354366969#0"/>
    <trip id="veh97" type="veh_passenger" depart="1252.58" departLane="best" from="299472281#1" to="-616971271#3"/>
    <trip id="veh98" type="veh_passenger" depart="1265.50" departLane="best" departSpeed="max" from="261422562" to="665897541#1"/>
    <trip id="veh99" type="veh_passenger" depart="1278.41" departLane="best" departSpeed="max" from="659117855" to="-261422558"/>
    <trip id="veh100" type="veh_passenger" depart="1291.32" departLane="best" from="220749345#1" to="-616971271#3"/>
    <trip id="veh101" type="veh_passenger" depart="1304.24" departLane="best" from="-1156706588#0" to="30649101"/>
    <trip id="veh102" type="veh_passenger" depart="1317.15" departLane="best" from="299472281#1" to="-616971271#3"/>
    <trip id="veh103" type="veh_passenger" depart="1330.06" departLane="best" departSpeed="max" from="444901317" to="220749342#1"/>
    <trip id="veh104" type="veh_passenger" depart="1342.98" departLane="best" departSpeed="max" from="261422558" to="-1156706588#1"/>
    <trip id="veh106" type="veh_passenger" depart="1368.80" departLane="best" departSpeed="max" from="659117855" to="220749342#1"/>
    <trip id="veh107" type="veh_passenger" depart="1381.72" departLane="best" departSpeed="max" from="647043774#0" to="220749344#1"/>
    <trip id="veh108" type="veh_passenger" depart="1394.63" departLane="best" from="-665897591#1" to="-261422562"/>
    <trip id="veh109" type="veh_passenger" depart="1407.54" departLane="best" from="220749343#0" to="665897541#1"/>
    <trip id="veh110" type="veh_passenger" depart="1420.46" departLane="best" departSpeed="max" from="616971271#0" to="399928440"/>
    <trip id="veh111" type="veh_passenger" depart="1433.37" departLane="best" departSpeed="max" from="659117855" to="-444901317"/>
    <trip id="veh112" type="veh_passenger" depart="1446.28" departLane="best" departSpeed="max" from="153814101" to="-261422558"/>
    <trip id="veh114" type="veh_passenger" depart="1472.11" departLane="best" departSpeed="max" from="-876167978" to="665897541#1"/>
    <trip id="veh115" type="veh_passenger" depart="1485.02" departLane="best" departSpeed="max" from="659117855" to="876167978"/>
    <trip id="veh117" type="veh_passenger" depart="1510.85" departLane="best" from="-1156706588#4" to="30649101"/>
    <trip id="veh118" type="veh_passenger" depart="1523.76" departLane="best" from="220749344#2" to="665897541#1"/>
    <trip id="veh119" type="veh_passenger" depart="1536.67" departLane="best" departSpeed="max" from="616971271#0" to="402968144"/>
    <trip id="veh120" type="veh_passenger" depart="1549.59" departLane="best" departSpeed="max" from="647043774#0" to="-616971271#3"/>
    <trip id="veh121" type="veh_passenger" depart="1562.50" departLane="best" departSpeed="max" from="659117855" to="399928440"/>
    <trip id="veh122" type="veh_passenger" depart="1575.41" departLane="best" from="1156706588#5" to="354366969#1"/>
    <trip id="veh123" type="veh_passenger" depart="1588.33" departLane="best" departSpeed="max" from="261422558" to="-647043774#1"/>
    <trip id="veh124" type="veh_passenger" depart="1601.24" departLane="best" from="220749344#2" to="402968144"/>
    <trip id="veh125" type="veh_passenger" depart="1614.15" departLane="best" departSpeed="max" from="665897597#0" to="-616971271#3"/>
    <trip id="veh126" type="veh_passenger" depart="1627.07" departLane="best" from="299472281#2" to="220749341"/>
    <trip id="veh127" type="veh_passenger" depart="1639.98" departLane="best" departSpeed="max" from="665897597#0" to="220749342#1"/>
    <trip id="veh128" type="veh_passenger" depart="1652.89" departLane="best" from="665897589" to="-261422562"/>
    <trip id="veh129" type="veh_passenger" depart="1665.81" departLane="best" departSpeed="max" from="665897597#0" to="-299472279"/>
    <trip id="veh130" type="veh_passenger" depart="1678.72" departLane="best" departSpeed="max" from="665897597#0" to="-616971271#3"/>
    <trip id="veh131" type="veh_passenger" depart="1691.63" departLane="best" departSpeed="max" from="-354366969#1" to="220749341"/>
    <trip id="veh132" type="veh_passenger" depart="1704.55" departLane="best" departSpeed="max" from="444901317" to="-647043774#1"/>
    <trip id="veh133" type="veh_passenger" depart="1717.46" departLane="best" departSpeed="max" from="153814101" to="299472281#2"/>
    <trip id="veh134" type="veh_passenger" depart="1730.37" departLane="best" departSpeed="max" from="444901317" to="220749344#8"/>
    <trip id="veh135" type="veh_passenger" depart="1743.29" departLane="best" from="220749344#5" to="-153814101"/>
    <trip id="veh136" type="veh_passenger" depart="1756.20" departLane="best" from="303101574" to="-647043774#1"/>
    <trip id="veh137" type="veh_passenger" depart="1769.11" departLane="best" from="220749344#1" to="354366969#1"/>
    <trip id="veh138" type="veh_passenger" depart="1782.03" departLane="best" departSpeed="max" from="444901317" to="-647043774#1"/>
    <trip id="veh139" type="veh_passenger" depart="1794.94" departLane="best" from="220749343#0" to="220749341"/>
    <trip id="veh140" type="veh_passenger" depart="1807.85" departLane="best" from="220749345#0" to="-647043774#1"/>
    <trip id="veh141" type="veh_passenger" depart="1820.77" departLane="best" from="-481239862" to="220749341"/>
    <trip id="veh142" type="veh_passenger" depart="1833.68" departLane="best" departSpeed="max" from="659117855" to="220749344#4"/>
    <trip id="veh143" type="veh_passenger" depart="1846.59" departLane="best" from="-1156706588#0" to="-616971271#3"/>
    <trip id="veh144" type="veh_passenger" depart="1859.51" departLane="best" departSpeed="max" from="261422558" to="220749343#0"/>
    <trip id="veh145" type="veh_passenger" depart="1872.42" departLane="best" from="299472991" to="220749341"/>
    <trip id="veh146" type="veh_passenger" depart="1885.33" departLane="best" departSpeed="max" from="261422562" to="665897541#1"/>
    <trip id="veh147" type="veh_passenger" depart="1898.24" departLane="best" departSpeed="max" from="616971271#0" to="-299472279"/>
    <trip id="veh148" type="veh_passenger" depart="1911.16" departLane="best" from="299472281#1" to="-665897587"/>
    <trip id="veh149" type="veh_passenger" depart="1924.07" departLane="best" departSpeed="max" from="647043774#0" to="30649101"/>
    <trip id="veh150" type="veh_passenger" depart="1936.98" departLane="best" from="307152128#1" to="-444901317"/>
    <trip id="veh151" type="veh_passenger" depart="1949.90" departLane="best" departSpeed="max" from="153814101" to="220749341"/>
    <trip id="veh152" type="veh_passenger" depart="1962.81" departLane="best" departSpeed="max" from="659117855" to="-153814101"/>
    <trip id="veh154" type="veh_passenger" depart="1988.64" departLane="best" departSpeed="max" from="-354366969#1" to="220749341"/>
    <trip id="veh155" type="veh_passenger" depart="2001.55" departLane="best" departSpeed="max" from="-876167978" to="665897597#1"/>
    <trip id="veh156" type="veh_passenger" depart="2014.46" departLane="best" departSpeed="max" from="299472279" to="-153814101"/>
    <trip id="veh157" type="veh_passenger" depart="2027.38" departLane="best" departSpeed="max" from="153814101" to="354366969#1"/>
    <trip id="veh158" type="veh_passenger" depart="2040.29" departLane="best" departSpeed="max" from="261422558" to="307152128#3"/>
    <trip id="veh159" type="veh_passenger" depart="2053.20" departLane="best" from="307152128#1" to="876167978"/>
    <trip id="veh160" type="veh_passenger" depart="2066.12" departLane="best" departSpeed="max" from="659117855" to="220749344#3"/>
    <trip id="veh161" type="veh_passenger" depart="2079.03" departLane="best" departSpeed="max" from="444901317" to="220749342#1"/>
    <trip id="veh162" type="veh_passenger" depart="2091.94" departLane="best" departSpeed="max" from="647043774#0" to="220749342#1"/>
    <trip id="veh163" type="veh_passenger" depart="2104.86" departLane="best" departSpeed="max" from="659117855" to="30649101"/>
    <trip id="veh164" type="veh_passenger" depart="2117.77" departLane="best" departSpeed="max" from="153814101" to="220749344#5"/>
    <trip id="veh165" type="veh_passenger" depart="2130.68" departLane="best" departSpeed="max" from="616971271#0" to="220749342#1"/>
    <trip id="veh166" type="veh_passenger" depart="2143.60" departLane="best" from="299472281#1" to="-616971271#3"/>
    <trip id="veh167" type="veh_passenger" depart="2156.51" departLane="best" from="153882369#1" to="-647043774#1"/>
    <trip id="veh168" type="veh_passenger" depart="2169.42" departLane="best" departSpeed="max" from="299472279" to="-261422562"/>
    <trip id="veh169" type="veh_passenger" depart="2182.34" departLane="best" from="354366969#0" to="-153814101"/>
    <trip id="veh170" type="veh_passenger" depart="2195.25" departLane="best" from="220749345#1" to="665897541#1"/>
    <trip id="veh171" type="veh_passenger" depart="2208.16" departLane="best" departSpeed="max" from="659117855" to="30649101"/>
    <trip id="veh172" type="veh_passenger" depart="2221.08" departLane="best" from="220749344#7" to="-1156706588#1"/>
    <trip id="veh173" type="veh_passenger" depart="2233.99" departLane="best" from="220749344#4" to="30649101"/>
    <trip id="veh174" type="veh_passenger" depart="2246.90" departLane="best" departSpeed="max" from="659117855" to="665897591#1"/>
    <trip id="veh175" type="veh_passenger" depart="2259.82" departLane="best" from="220749345#1" to="30649101"/>
    <trip id="veh176" type="veh_passenger" depart="2272.73" departLane="best" from="1156706588#5" to="-444901317"/>
    <trip id="veh177" type="veh_passenger" depart="2285.64" departLane="best" departSpeed="max" from="261422558" to="-1156706588#5"/>
    <trip id="veh178" type="veh_passenger" depart="2298.56" departLane="best" from="-665897587" to="220749341"/>
    <trip id="veh179" type="veh_passenger" depart="2311.47" departLane="best" departSpeed="max" from="-30649101" to="1156706588#4"/>
    <trip id="veh180" type="veh_passenger" depart="2324.38" departLane="best" from="1156706588#3" to="-647043774#1"/>
    <trip id="veh181" type="veh_passenger" depart="2337.29" departLane="best" departSpeed="max" from="444901317" to="354366969#1"/>
    <trip id="veh182" type="veh_passenger" depart="2350.21" departLane="best" departSpeed="max" from="153814101" to="-261422558"/>
    <trip id="veh183" type="veh_passenger" depart="2363.12" departLane="best" from="-1156706588#3" to="220749342#1"/>
    <trip id="veh184" type="veh_passenger" depart="2376.03" departLane="best" from="299472991" to="307152128#1"/>
    <trip id="veh185" type="veh_passenger" depart="2388.95" departLane="best" from="299472991" to="30649101"/>
    <trip id="veh186" type="veh_passenger" depart="2401.86" departLane="best" from="-1156706588#3" to="-261422562"/>
    <trip id="veh187" type="veh_passenger" depart="2414.77" departLane="best" departSpeed="max" from="-354366969#1" to="220749344#8"/>
    <trip id="veh188" type="veh_passenger" depart="2427.69" departLane="best" departSpeed="max" from="299472281#0" to="-444901317"/>
    <trip id="veh189" type="veh_passenger" depart="2440.60" departLane="best" from="307152128#3" to="30649101"/>
    <trip id="veh190" type="veh_passenger" depart="2453.51" departLane="best" departSpeed="max" from="647043774#0" to="876167978"/>
    <trip id="veh191" type="veh_passenger" depart="2466.43" departLane="best" departSpeed="max" from="665897597#0" to="220749341"/>
    <trip id="veh192" type="veh_passenger" depart="2479.34" departLane="best" from="402968144" to="-261422558"/>
    <trip id="veh193" type="veh_passenger" depart="2492.25" departLane="best" from="307152128#3" to="220749344#5"/>
    <trip id="veh194" type="veh_passenger" depart="2505.17" departLane="best" departSpeed="max" from="-354366969#1" to="30649101"/>
    <trip id="veh195" type="veh_passenger" depart="2518.08" departLane="best" departSpeed="max" from="659117855" to="220749344#2"/>
    <trip id="veh196" type="veh_passenger" depart="2530.99" departLane="best" departSpeed="max" from="-354366969#1" to="876167978"/>
    <trip id="veh197" type="veh_passenger" depart="2543.91" departLane="best" departSpeed="max" from="616971271#0" to="-665897591#1"/>
    <trip id="veh198" type="veh_passenger" depart="2556.82" departLane="best" departSpeed="max" from="261422558" to="1156706588#3"/>
    <trip id="veh199" type="veh_passenger" depart="2569.73" departLane="best" departSpeed="max" from="659117855" to="354366969#1"/>
    <trip id="veh200" type="veh_passenger" depart="2582.65" departLane="best" departSpeed="max" from="-354366969#1" to="876167978"/>
    <trip id="veh201" type="veh_passenger" depart="2595.56" departLane="best" from="399928440" to="220749341"/>
    <trip id="veh202" type="veh_passenger" depart="2608.47" departLane="best" departSpeed="max" from="444901317" to="876167978"/>
    <trip id="veh203" type="veh_passenger" depart="2621.39" departLane="best" from="153882369#1" to="307152128#3"/>
    <trip id="veh204" type="veh_passenger" depart="2634.30" departLane="best" departSpeed="max" from="261422558" to="303101574"/>
    <trip id="veh205" type="veh_passenger" depart="2647.21" departLane="best" from="153882369#1" to="354366969#1"/>
    <trip id="veh206" type="veh_passenger" depart="2660.13" departLane="best" departSpeed="max" from="647043774#0" to="-261422558"/>
    <trip id="veh207" type="veh_passenger" depart="2673.04" departLane="best" departSpeed="max" from="659117855" to="-444901317"/>
    <trip id="veh208" type="veh_passenger" depart="2685.95" departLane="best" departSpeed="max" from="261422558" to="220749344#3"/>
    <trip id="veh209" type="veh_passenger" depart="2698.87" departLane="best" departSpeed="max" from="659117855" to="-299472279"/>
    <trip id="veh210" type="veh_passenger" depart="2711.78" departLane="best" from="354366969#0" to="-616971271#3"/>
    <trip id="veh211" type="veh_passenger" depart="2724.69" departLane="best" from="307152128#3" to="220749344#6"/>
    <trip id="veh212" type="veh_passenger" depart="2737.60" departLane="best" departSpeed="max" from="261422562" to="307152128#2"/>
    <trip id="veh213" type="veh_passenger" depart="2750.52" departLane="best" departSpeed="max" from="-354366969#1" to="-444901317"/>
    <trip id="veh214" type="veh_passenger" depart="2763.43" departLane="best" from="307152128#3" to="-647043774#1"/>
    <trip id="veh215" type="veh_passenger" depart="2776.34" departLane="best" departSpeed="max" from="299472281#0" to="220749341"/>
    <trip id="veh216" type="veh_passenger" depart="2789.26" departLane="best" departSpeed="max" from="299472279" to="220749341"/>
    <trip id="veh217" type="veh_passenger" depart="2802.17" departLane="best" departSpeed="max" from="444901317" to="-647043774#1"/>
    <trip id="veh218" type="veh_passenger" depart="2815.08" departLane="best" from="354366969#0" to="-616971271#3"/>
    <trip id="veh219" type="veh_passenger" depart="2828.00" departLane="best" departSpeed="max" from="153814101" to="-261422562"/>
    <trip id="veh220" type="veh_passenger" depart="2840.91" departLane="best" from="1156706588#0" to="-261422562"/>
    <trip id="veh221" type="veh_passenger" depart="2853.82" departLane="best" departSpeed="max" from="299472279" to="30649101"/>
    <trip id="veh222" type="veh_passenger" depart="2866.74" departLane="best" departSpeed="max" from="-876167978" to="-444901317"/>
    <trip id="veh223" type="veh_passenger" depart="2879.65" departLane="best" departSpeed="max" from="261422562" to="303101574"/>
    <trip id="veh224" type="veh_passenger" depart="2892.56" departLane="best" departSpeed="max" from="665897597#0" to="220749342#1"/>
    <trip id="veh226" type="veh_passenger" depart="2918.39" departLane="best" from="1156706588#0" to="-444901317"/>
    <trip id="veh227" type="veh_passenger" depart="2931.30" departLane="best" departSpeed="max" from="299472279" to="-616971271#3"/>
    <trip id="veh228" type="veh_passenger" depart="2944.22" departLane="best" departSpeed="max" from="665897597#0" to="220749342#1"/>
    <trip id="veh229" type="veh_passenger" depart="2957.13" departLane="best" from="307152128#3" to="-261422562"/>
    <trip id="veh230" type="veh_passenger" depart="2970.04" departLane="best" departSpeed="max" from="659117855" to="220749342#1"/>
    <trip id="veh231" type="veh_passenger" depart="2982.96" departLane="best" departSpeed="max" from="659117855" to="220749343#0"/>
    <trip id="veh232" type="veh_passenger" depart="2995.87" departLane="best" departSpeed="max" from="261422562" to="220749341"/>
    <trip id="veh233" type="veh_passenger" depart="3008.78" departLane="best" departSpeed="max" from="-876167978" to="-153814101"/>
    <trip id="veh234" type="veh_passenger" depart="3021.70" departLane="best" from="665897589" to="220749342#0"/>
    <trip id="veh235" type="veh_passenger" depart="3034.61" departLane="best" departSpeed="max" from="647043774#0" to="220749341"/>
    <trip id="veh236" type="veh_passenger" depart="3047.52" departLane="best" departSpeed="max" from="-30649101" to="220749344#5"/>